
Circuit: *-----------------------------------------------------------------------------

false = 0.000000e+00
true = 1.000000e+00
boltz = 1.380649e-23
c = 2.997925e+08
e = 2.718282e+00
echarge = 1.602177e-19
i = 0.000000e+00,1.000000e+00
kelvin = -2.73150e+02
no = 0.000000e+00
pi = 3.141593e+00
planck = 6.626070e-34
yes = 1.000000e+00
Reducing trtol to 1 for xspice 'A' devices
Doing analysis at TEMP = 27.000000 and TNOM = 27.000000


Initial Transient Solution
--------------------------

Node                                   Voltage
----                                   -------
vcc                                          5
vee                                         -5
out                                          0
out_1                                        0
x1.11                                  4.96033
x1.12                                  4.96033
x1.6                              -0.000347463
x1.7                                   1.21269
x1.53                                        4
x1.54                                       -4
x1.90                                  24.2538
x1.91                                       40
x1.92                                      -40
x1.99                                        0
x1.10                                -0.607768
inv_in                            -7.89636e-05
x1.13                                -0.593893
ninv_in                           -7.97517e-05
x1.14                                -0.593893
x1.9                                         0
x1.8                                   1.21269
h.x1.hlim#branch                  -4.85088e-11
v.x1.vlim#branch                     0.0242538
v.x1.vln#branch                   -6.42573e-11
v.x1.vlp#branch                    -1.5747e-11
v.x1.ve#branch                     4.00124e-12
v.x1.vc#branch                      4.0008e-12
v.x1.vb#branch                    -3.47463e-09
vzout#branch                        -0.0242538
vin#branch                           0.0242538
vee#branch                         0.000565821
vcc#branch                        -0.000565615
a$poly$e.x1.egnd#branch_1_0         -0.0242538


No. of Data Rows : 1008
Reducing trtol to 1 for xspice 'A' devices
Doing analysis at TEMP = 27.000000 and TNOM = 27.000000


No. of Data Rows : 71
ERROR: (internal)  This operation is not defined for display type printf.
Can't open viewport for graphics.
z_output            =  5.038865e+00
Reducing trtol to 1 for xspice 'A' devices
Doing analysis at TEMP = 27.000000 and TNOM = 27.000000


No. of Data Rows : 1
	Node                                  Voltage
	----                                  -------
	----	-------
	x1.8                             1.212690e+00
	x1.9                             0.000000e+00
	x1.14                            -5.93893e-01
	ninv_in                          -7.97517e-05
	x1.13                            -5.93893e-01
	inv_in                           -7.89636e-05
	x1.10                            -6.07768e-01
	x1.99                            0.000000e+00
	x1.92                            -4.00000e+01
	x1.91                            4.000000e+01
	x1.90                            2.425379e+01
	x1.54                            -4.00000e+00
	x1.53                            4.000000e+00
	x1.7                             1.212690e+00
	x1.6                             -3.47463e-04
	x1.12                            4.960334e+00
	x1.11                            4.960333e+00
	out_1                            0.000000e+00
	out                              0.000000e+00
	vee                              -5.00000e+00
	vcc                              5.000000e+00

	Source	Current
	------	-------

	@r4[i]                           -7.89636e-10
	@r3[i]                           7.896363e-08
	@r1[i]                           7.975168e-08
	@c1[i]                           0.000000e+00
	@r.x1.rp[i]                      5.506608e-04
	@r.x1.ro2[i]                     1.212690e-02
	@r.x1.ro1[i]                     2.425379e-02
	@r.x1.ree[i]                     -4.60779e-08
	@r.x1.re2[i]                     7.556886e-06
	@r.x1.re1[i]                     7.557036e-06
	@r.x1.rc2[i]                     7.477139e-06
	@r.x1.rc1[i]                     7.477288e-06
	@r.x1.r2[i]                      -3.47463e-09
	@q.x1.q2[is]                     4.960334e-12
	@q.x1.q2[ib]                     7.975168e-08
	@q.x1.q2[ie]                     -7.55689e-06
	@q.x1.q2[ic]                     7.477134e-06
	@q.x1.q1[is]                     4.960333e-12
	@q.x1.q1[ib]                     7.975326e-08
	@q.x1.q1[ie]                     -7.55704e-06
	@q.x1.q1[ic]                     7.477283e-06
	@g.x1.gcm[i]                     -3.62290e-09
	@g.x1.ga[i]                      -1.48276e-10
	@d.x1.dp[id]                     -1.00008e-11
	@d.x1.dln[id]                    -6.42546e-11
	@d.x1.dlp[id]                    -1.57470e-11
	@d.x1.de[id]                     -4.00080e-12
	@d.x1.dc[id]                     -4.00080e-12
	@c.x1.c2[i]                      0.000000e+00
	@c.x1.c1[i]                      0.000000e+00
	a$poly$e.x1.egnd#branch_1_0      -2.42538e-02
	vcc#branch                       -5.65615e-04
	vee#branch                       5.658208e-04
	vin#branch                       2.425379e-02
	vzout#branch                     -2.42538e-02
	v.x1.vb#branch                   -3.47463e-09
	v.x1.vc#branch                   4.000800e-12
	v.x1.ve#branch                   4.001244e-12
	v.x1.vlp#branch                  -1.57470e-11
	v.x1.vln#branch                  -6.42573e-11
	v.x1.vlim#branch                 2.425379e-02
	h.x1.hlim#branch                 -4.85088e-11

 BJT models (Bipolar Junction Transistor)
      model                 x1:qx

       type                   npn
       tnom                    27
         is                 8e-16
         bf                 93.75
         nf                     1
        vaf                     0
        ikf                     0
        ise                     0
         ne                   1.5
         br                     1
         nr                     1
        var                     0
        ikr                     0
        isc                     0
         nc                     2
         rb                     0
        irb                     0
        rbm                     0
         re                     0
         rc                     0
        cje                     0
        vje                  0.75
        mje                  0.33
         tf                     0
        xtf                     0
        vtf                     0
        itf                     0
        ptf                     0
        cjc                     0
        vjc                  0.75
        mjc                  0.33
       xcjc                     1
         tr                     0
        cjs                     0
        vjs                  0.75
        mjs                     0
        xtb                     0
         eg                  1.11
        xti                     3
         fc                   0.5
         kf                     0
         af                     0
        iss                     0
         ns                     1
       tlev                     0
      tlevc                     0
       tbf1                     0
       tbf2                     0
       tbr1                     0
       tbr2                     0
      tikf1                     0
      tikf2                     0
      tikr1                     0
      tikr2                     0
      tirb1                     0
      tirb2                     0
       tnc1                     0
       tnc2                     0
       tne1                     0
       tne2                     0
       tnf1                     0
       tnf2                     0
       tnr1                     0
       tnr2                     0
       trb1                     0
       trb2                     0
       trc1                     0
       trc2                     0
       tre1                     0
       tre2                     0
       trm1                     0
       trm2                     0
      tvaf1                     0
      tvaf2                     0
      tvar1                     0
      tvar2                     0
        ctc                     0
        cte                     0
        cts                     0
       tvjc                     0
       tvje                     0
       tvjs                     0
      titf1                     0
      titf2                     0
       ttf1                     0
       ttf2                     0
       ttr1                     0
       ttr2                     0
      tmje1                     0
      tmje2                     0
      tmjc1                     0
      tmjc2                     0
      tmjs1                     0
      tmjs2                     0
       tns1                     0
       tns2                     0
        nkf                   0.5
       tis1                     0
       tis2                     0
      tise1                     0
      tise2                     0
      tisc1                     0
      tisc2                     0
    vbe_max                 1e+99
    vbc_max                 1e+99
    vce_max                 1e+99

 Capacitor models (Fixed capacitor)
      model                     C

        cap                     0
         cj                     0
       cjsw                     0
       defw                 1e-05
       defl                     0
     narrow                     0
      short                     0
        del                     0
        tc1                     0
        tc2                     0
         di                     0
      thick                     0
     bv_max                 1e+99

 Diode models (Junction Diode model)
      model                 x1:dx

      level                     1
         is                 8e-16
        jsw                     0
         rs                     1
        trs                     0
       trs2                     0
          n                     1
         ns                     1
         tt                     0
       ttt1                     0
       ttt2                     0
        cjo                     0
         vj                     1
          m                   0.5
        tm1                     0
        tm2                     0
        cjp                     0
        php                     1
       mjsw                  0.33
        ikf                     0
        ikr                     0
        nbv                     1
       area                     1
         pj                     0
       tlev                     0
      tlevc                     0
         eg                  1.11
        xti                     3
        cta                     0
        ctp                     0
        tpb                     0
       tphp                     0
       jtun                     0
     jtunsw                     0
       ntun                    30
     xtitun                     3
        keg                     1
         kf                     0
         af                     1
         fc                   0.5
        fcs                   0.5
         bv                     0
        ibv                 0.001
        tcv                     0
     fv_max                 1e+99
     bv_max                 1e+99
        isr                 1e-14
         nr                     1

 Resistor models (Simple linear resistor)
      model                     R

        rsh                     0
     narrow                     0
      short                     0
        tc1                     0
        tc2                     0
        tce                     0
       defw                 1e-05
          l                 1e-05
         kf                     0
         af                     0
          r                     0
     bv_max                 1e+99
         lf                     1
         wf                     1
         ef                     1

 spice2poly models (2G6 compatible polynomial controlled source)
      model        a$poly$f.x1.fb      a$poly$e.x1.egnd

       coef                     0                     0
                        1.061e+07                   0.5
                           -1e+07                   0.5
                            1e+07          
                            1e+07          
                           -1e+07          

 BJT: Bipolar Junction Transistor
     device               q.x1.q2               q.x1.q1
      model                 x1:qx                 x1:qx
         ic           7.47713e-06           7.47728e-06
         ib           7.97517e-08           7.97533e-08
         ie          -7.55689e-06          -7.55704e-06
        vbe              0.593813              0.593814
        vbc              -4.96041              -4.96041
         gm           0.000289084            0.00028909
        gpi           3.08356e-06           3.08362e-06
        gmu                 1e-12                 1e-12
         gx                     0                     0
         go           9.22048e-23           9.22049e-23
        cpi                     0                     0
        cmu                     0                     0
        cbx                     0                     0
       csub                     0                     0

 Capacitor: Fixed capacitor
     device                    c1               c.x1.c2               c.x1.c1
      model                     C                     C                     C
capacitance               3.3e-07                 3e-11             8.661e-12
      dtemp                     0                     0                     0
     bv_max                 1e+99                 1e+99                 1e+99
          i                     0                     0                     0
          p                     0                    -0                    -0

 CCVS: Linear current controlled current source
     device             h.x1.hlim
          i          -4.85088e-11
          v               24.2538
          p          -1.17652e-09

 Diode: Junction Diode model
     device               d.x1.dp              d.x1.dln              d.x1.dlp
      model                 x1:dx                 x1:dx                 x1:dx
         vd                   -10              -64.2538              -15.7462
         id          -1.00008e-11          -6.42546e-11           -1.5747e-11
         gd                 1e-12                 1e-12                 1e-12
         cd                     0                     0                     0

 Diode: Junction Diode model
     device               d.x1.de               d.x1.dc
      model                 x1:dx                 x1:dx
         vd                    -4                    -4
         id           -4.0008e-12           -4.0008e-12
         gd                 1e-12                 1e-12
         cd                     0                     0

 Isource: Independent current source
     device              i.x1.iee
         dc             1.516e-05
          m                     1
      acmag                     0
      pulse         -
        sin         -
        exp         -
        pwl         -
       sffm         -
         am         -
    trnoise         -
   trrandom         -
          v              -4.39223
          p           6.65862e-05
    current             1.516e-05

 Resistor: Simple linear resistor
     device                    r4                    r3                    r1
      model                     R                     R                     R
 resistance                100000                  1000                  1000
         ac                100000                  1000                  1000
      dtemp                     0                     0                     0
     bv_max                 1e+99                 1e+99                 1e+99
      noisy                     1                     1                     1
          i          -7.89636e-10           7.89636e-08           7.97517e-08
          p           6.23525e-14           6.23525e-12           6.36033e-12

 Resistor: Simple linear resistor
     device               r.x1.rp              r.x1.ro2              r.x1.ro1
      model                     R                     R                     R
 resistance                 18160                   100                    50
         ac                 18160                   100                    50
      dtemp                     0                     0                     0
     bv_max                 1e+99                 1e+99                 1e+99
      noisy                     1                     1                     1
          i           0.000550661             0.0121269             0.0242538
          p            0.00550661             0.0147062             0.0294123

 Resistor: Simple linear resistor
     device              r.x1.ree              r.x1.re2              r.x1.re1
      model                     R                     R                     R
 resistance             1.319e+07                  1836                  1836
         ac             1.319e+07                  1836                  1836
      dtemp                     0                     0                     0
     bv_max                 1e+99                 1e+99                 1e+99
      noisy                     1                     1                     1
          i          -4.60779e-08           7.55689e-06           7.55704e-06
          p           2.80047e-08           1.04848e-07           1.04852e-07

 Resistor: Simple linear resistor
     device              r.x1.rc2              r.x1.rc1               r.x1.r2
      model                     R                     R                     R
 resistance                  5305                  5305                100000
         ac                  5305                  5305                100000
      dtemp                     0                     0                     0
     bv_max                 1e+99                 1e+99                 1e+99
      noisy                     1                     1                     1
          i           7.47714e-06           7.47729e-06          -3.47463e-09
          p            2.9659e-07           2.96602e-07            1.2073e-12

 VCCS: Voltage controlled current source
     device              g.x1.gcm               g.x1.ga
          m                     0                     0
          i           -3.6229e-09          -1.48276e-10
          v           0.000347463          -0.000347463
          p          -1.25882e-12           5.15203e-14

 Vsource: Independent voltage source
     device              v.x1.vln              v.x1.vlp             v.x1.vlim
         dc                    40                    40                     0
      acmag                     0                     0                     0
      pulse         -         -         -
        sin         -         -         -
        exp         -         -         -
        pwl         -         -         -
       sffm         -         -         -
         am         -         -         -
    trnoise         -         -         -
   trrandom         -         -         -
          i          -6.42573e-11           -1.5747e-11             0.0242538
          p           2.57029e-09            6.2988e-10                    -0

 Vsource: Independent voltage source
     device               v.x1.ve               v.x1.vc               v.x1.vb
         dc                     1                     1                     0
      acmag                     0                     0                     0
      pulse         -         -         -
        sin         -         -         -
        exp         -         -         -
        pwl         -         -         -
       sffm         -         -         -
         am         -         -         -
    trnoise         -         -         -
   trrandom         -         -         -
          i           4.00124e-12            4.0008e-12          -3.47463e-09
          p          -4.00124e-12           -4.0008e-12                     0

 Vsource: Independent voltage source
     device                 vzout                   vin                   vee
         dc                     0                     0                    -5
      acmag                     0                     1                     0
      pulse         -                     0         -
                                       0.01          
                                       1000          
        sin         -                     0         -
                                       0.01          
                                       1000          
        exp         -                     0         -
                                       0.01          
                                       1000          
        pwl         -                     0         -
                                       0.01          
                                       1000          
       sffm         -                     0         -
                                       0.01          
                                       1000          
         am         -                     0         -
                                       0.01          
                                       1000          
    trnoise         -                     0         -
                                       0.01          
                                       1000          
   trrandom         -                     0         -
                                       0.01          
                                       1000          
          i            -0.0242538             0.0242538           0.000565821
          p                     0                    -0             0.0028291

 Vsource: Independent voltage source
     device                   vcc
         dc                     5
      acmag                     0
      pulse         -
        sin         -
        exp         -
        pwl         -
       sffm         -
         am         -
    trnoise         -
   trrandom         -
          i          -0.000565615
          p            0.00282808

 spice2poly: 2G6 compatible polynomial controlled source
     device        a$poly$f.x1.fb      a$poly$e.x1.egnd
      model        a$poly$f.x1.fb      a$poly$e.x1.egnd
    acgains             1.061e+07                   0.5
                           -1e+07                   0.5
                            1e+07          
                            1e+07          
                           -1e+07          


Total analysis time (seconds) = 0.178

Total elapsed time (seconds) = 0.242 

Total DRAM available = 3935.898 MB.
DRAM currently available =  401.246 MB.
Total ngspice program size =   23.594 MB.
Resident set size =   11.484 MB.
Shared ngspice pages =    8.047 MB.
Text (code) pages =    5.070 MB.
Stack = 0 bytes.
Library pages =    3.852 MB.

