
Circuit: *-----------------------------------------------------------------------------

false = 0.000000e+00
true = 1.000000e+00
boltz = 1.380649e-23
c = 2.997925e+08
e = 2.718282e+00
echarge = 1.602177e-19
i = 0.000000e+00,1.000000e+00
kelvin = -2.73150e+02
no = 0.000000e+00
pi = 3.141593e+00
planck = 6.626070e-34
yes = 1.000000e+00
Reducing trtol to 1 for xspice 'A' devices
Doing analysis at TEMP = 27.000000 and TNOM = 27.000000


No. of Data Rows : 71
ERROR: (internal)  This operation is not defined for display type printf.
Can't open viewport for graphics.
ERROR: (internal)  This operation is not defined for display type printf.
Can't open viewport for graphics.

The file "vo1db.ps" may be printed on a postscript printer.
vo1db_FIG

The file "vo1f.ps" may be printed on a postscript printer.
vo1f_FIG
Reducing trtol to 1 for xspice 'A' devices
Doing analysis at TEMP = 27.000000 and TNOM = 27.000000


No. of Data Rows : 1
	Node                                  Voltage
	----                                  -------
	----	-------
	x1.8                             -4.72904e+00
	x1.9                             0.000000e+00
	x1.14                            -2.94541e+00
	ninv_in                          -2.59232e+00
	x1.13                            -2.91799e+00
	inv_in                           -2.30655e+00
	x1.10                            -2.94541e+00
	x1.99                            0.000000e+00
	x1.92                            -4.00000e+01
	x1.91                            4.000000e+01
	x1.90                            -2.32205e+00
	x1.54                            -4.00000e+00
	x1.53                            4.000000e+00
	out                              -4.61294e+00
	x1.7                             -4.72904e+00
	x1.6                             1.476002e+00
	x1.12                            4.999996e+00
	x1.11                            4.921601e+00
	in                               0.000000e+00
	vee                              -5.00000e+00
	vcc                              5.000000e+00

	Source	Current
	------	-------

	@r4[i]                           2.306392e-03
	@r3[i]                           2.306550e-03
	@c1[i]                           0.000000e+00
	@r.x1.rp[i]                      5.506608e-04
	@r.x1.ro2[i]                     -4.72904e-02
	@r.x1.ro1[i]                     -2.32205e-03
	@r.x1.ree[i]                     -2.23306e-07
	@r.x1.re2[i]                     6.863467e-10
	@r.x1.re1[i]                     1.493601e-05
	@r.x1.rc2[i]                     6.913467e-10
	@r.x1.rc1[i]                     1.477838e-05
	@r.x1.r2[i]                      1.476002e-05
	@q.x1.q2[is]                     4.999996e-12
	@q.x1.q2[ib]                     2.505278e-16
	@q.x1.q2[ie]                     -6.91370e-10
	@q.x1.q2[ic]                     6.863702e-10
	@q.x1.q1[is]                     4.921601e-12
	@q.x1.q1[ib]                     1.576293e-07
	@q.x1.q1[ie]                     -1.49360e-05
	@q.x1.q1[ic]                     1.477838e-05
	@g.x1.gcm[i]                     -1.75576e-08
	@g.x1.ga[i]                      -1.47776e-05
	@d.x1.dp[id]                     -1.00008e-11
	@d.x1.dln[id]                    -3.76788e-11
	@d.x1.dlp[id]                    -4.23228e-11
	@d.x1.de[id]                     1.565541e-05
	@d.x1.dc[id]                     -8.61374e-12
	@c.x1.c2[i]                      0.000000e+00
	@c.x1.c1[i]                      0.000000e+00
	a$poly$e.x1.egnd#branch_1_0      2.321825e-03
	vcc#branch                       -5.65440e-04
	vee#branch                       5.501654e-04
	vin#branch                       0.000000e+00
	v.x1.vb#branch                   1.476002e-05
	v.x1.vc#branch                   8.613742e-12
	v.x1.ve#branch                   -1.56554e-05
	v.x1.vlp#branch                  -4.23228e-11
	v.x1.vln#branch                  -3.76815e-11
	v.x1.vlim#branch                 -2.32205e-03
	h.x1.hlim#branch                 4.644285e-12

 BJT models (Bipolar Junction Transistor)
      model                 x1:qx

       type                   npn
       tnom                    27
         is                 8e-16
         bf                 93.75
         nf                     1
        vaf                     0
        ikf                     0
        ise                     0
         ne                   1.5
         br                     1
         nr                     1
        var                     0
        ikr                     0
        isc                     0
         nc                     2
         rb                     0
        irb                     0
        rbm                     0
         re                     0
         rc                     0
        cje                     0
        vje                  0.75
        mje                  0.33
         tf                     0
        xtf                     0
        vtf                     0
        itf                     0
        ptf                     0
        cjc                     0
        vjc                  0.75
        mjc                  0.33
       xcjc                     1
         tr                     0
        cjs                     0
        vjs                  0.75
        mjs                     0
        xtb                     0
         eg                  1.11
        xti                     3
         fc                   0.5
         kf                     0
         af                     0
        iss                     0
         ns                     1
       tlev                     0
      tlevc                     0
       tbf1                     0
       tbf2                     0
       tbr1                     0
       tbr2                     0
      tikf1                     0
      tikf2                     0
      tikr1                     0
      tikr2                     0
      tirb1                     0
      tirb2                     0
       tnc1                     0
       tnc2                     0
       tne1                     0
       tne2                     0
       tnf1                     0
       tnf2                     0
       tnr1                     0
       tnr2                     0
       trb1                     0
       trb2                     0
       trc1                     0
       trc2                     0
       tre1                     0
       tre2                     0
       trm1                     0
       trm2                     0
      tvaf1                     0
      tvaf2                     0
      tvar1                     0
      tvar2                     0
        ctc                     0
        cte                     0
        cts                     0
       tvjc                     0
       tvje                     0
       tvjs                     0
      titf1                     0
      titf2                     0
       ttf1                     0
       ttf2                     0
       ttr1                     0
       ttr2                     0
      tmje1                     0
      tmje2                     0
      tmjc1                     0
      tmjc2                     0
      tmjs1                     0
      tmjs2                     0
       tns1                     0
       tns2                     0
        nkf                   0.5
       tis1                     0
       tis2                     0
      tise1                     0
      tise2                     0
      tisc1                     0
      tisc2                     0
    vbe_max                 1e+99
    vbc_max                 1e+99
    vce_max                 1e+99

 Capacitor models (Fixed capacitor)
      model                     C

        cap                     0
         cj                     0
       cjsw                     0
       defw                 1e-05
       defl                     0
     narrow                     0
      short                     0
        del                     0
        tc1                     0
        tc2                     0
         di                     0
      thick                     0
     bv_max                 1e+99

 Diode models (Junction Diode model)
      model                 x1:dx

      level                     1
         is                 8e-16
        jsw                     0
         rs                     1
        trs                     0
       trs2                     0
          n                     1
         ns                     1
         tt                     0
       ttt1                     0
       ttt2                     0
        cjo                     0
         vj                     1
          m                   0.5
        tm1                     0
        tm2                     0
        cjp                     0
        php                     1
       mjsw                  0.33
        ikf                     0
        ikr                     0
        nbv                     1
       area                     1
         pj                     0
       tlev                     0
      tlevc                     0
         eg                  1.11
        xti                     3
        cta                     0
        ctp                     0
        tpb                     0
       tphp                     0
       jtun                     0
     jtunsw                     0
       ntun                    30
     xtitun                     3
        keg                     1
         kf                     0
         af                     1
         fc                   0.5
        fcs                   0.5
         bv                     0
        ibv                 0.001
        tcv                     0
     fv_max                 1e+99
     bv_max                 1e+99
        isr                 1e-14
         nr                     1

 Resistor models (Simple linear resistor)
      model                     R

        rsh                     0
     narrow                     0
      short                     0
        tc1                     0
        tc2                     0
        tce                     0
       defw                 1e-05
          l                 1e-05
         kf                     0
         af                     0
          r                     0
     bv_max                 1e+99
         lf                     1
         wf                     1
         ef                     1

 spice2poly models (2G6 compatible polynomial controlled source)
      model        a$poly$f.x1.fb      a$poly$e.x1.egnd

       coef                     0                     0
                        1.061e+07                   0.5
                           -1e+07                   0.5
                            1e+07          
                            1e+07          
                           -1e+07          

 BJT: Bipolar Junction Transistor
     device               q.x1.q2               q.x1.q1
      model                 x1:qx                 x1:qx
         ic            6.8637e-10           1.47784e-05
         ib           2.50528e-16           1.57629e-07
         ie           -6.9137e-10           -1.4936e-05
        vbe              0.353087              0.611436
        vbc              -7.59232              -7.22815
         gm           2.62432e-08           0.000571367
        gpi           2.80927e-10           6.09459e-06
        gmu                 1e-12                 1e-12
         gx                     0                     0
         go           1.68007e-23           2.04511e-23
        cpi                     0                     0
        cmu                     0                     0
        cbx                     0                     0
       csub                     0                     0

 Capacitor: Fixed capacitor
     device                    c1               c.x1.c2               c.x1.c1
      model                     C                     C                     C
capacitance               3.3e-07                 3e-11             8.661e-12
      dtemp                     0                     0                     0
     bv_max                 1e+99                 1e+99                 1e+99
          i                     0                     0                     0
          p                     0                     0                    -0

 CCVS: Linear current controlled current source
     device             h.x1.hlim
          i           4.64428e-12
          v              -2.32205
          p          -1.07843e-11

 Diode: Junction Diode model
     device               d.x1.dp              d.x1.dln              d.x1.dlp
      model                 x1:dx                 x1:dx                 x1:dx
         vd                   -10               -37.678               -42.322
         id          -1.00008e-11          -3.76788e-11          -4.23228e-11
         gd                 1e-12                 1e-12                 1e-12
         cd                     0                     0                     0

 Diode: Junction Diode model
     device               d.x1.de               d.x1.dc
      model                 x1:dx                 x1:dx
         vd              0.612927              -8.61294
         id           1.56554e-05          -8.61374e-12
         gd           0.000605276                 1e-12
         cd                     0                     0

 Isource: Independent current source
     device              i.x1.iee
         dc             1.516e-05
          m                     1
      acmag                     0
      pulse         -
        sin         -
        exp         -
        pwl         -
       sffm         -
         am         -
    trnoise         -
   trrandom         -
          v              -2.05459
          p           3.11476e-05
    current             1.516e-05

 Resistor: Simple linear resistor
     device                    r4                    r3               r.x1.rp
      model                     R                     R                     R
 resistance                  1000                  1000                 18160
         ac                  1000                  1000                 18160
      dtemp                     0                     0                     0
     bv_max                 1e+99                 1e+99                 1e+99
      noisy                     1                     1                     1
          i            0.00230639            0.00230655           0.000550661
          p            0.00531945            0.00532017            0.00550661

 Resistor: Simple linear resistor
     device              r.x1.ro2              r.x1.ro1              r.x1.ree
      model                     R                     R                     R
 resistance                   100                    50             1.319e+07
         ac                   100                    50             1.319e+07
      dtemp                     0                     0                     0
     bv_max                 1e+99                 1e+99                 1e+99
      noisy                     1                     1                     1
          i            -0.0472904           -0.00232205          -2.23306e-07
          p              0.223639           0.000269595           6.57728e-07

 Resistor: Simple linear resistor
     device              r.x1.re2              r.x1.re1              r.x1.rc2
      model                     R                     R                     R
 resistance                  1836                  1836                  5305
         ac                  1836                  1836                  5305
      dtemp                     0                     0                     0
     bv_max                 1e+99                 1e+99                 1e+99
      noisy                     1                     1                     1
          i           6.86347e-10            1.4936e-05           6.91347e-10
          p           8.64888e-16           4.09583e-07           2.53558e-15

 Resistor: Simple linear resistor
     device              r.x1.rc1               r.x1.r2
      model                     R                     R
 resistance                  5305                100000
         ac                  5305                100000
      dtemp                     0                     0
     bv_max                 1e+99                 1e+99
      noisy                     1                     1
          i           1.47784e-05             1.476e-05
          p           1.15862e-06           2.17858e-05

 VCCS: Voltage controlled current source
     device              g.x1.gcm               g.x1.ga
          m                     0                     0
          i          -1.75576e-08          -1.47776e-05
          v                -1.476                 1.476
          p            2.5915e-08          -2.18117e-05

 Vsource: Independent voltage source
     device              v.x1.vln              v.x1.vlp             v.x1.vlim
         dc                    40                    40                     0
      acmag                     0                     0                     0
      pulse         -         -         -
        sin         -         -         -
        exp         -         -         -
        pwl         -         -         -
       sffm         -         -         -
         am         -         -         -
    trnoise         -         -         -
   trrandom         -         -         -
          i          -3.76815e-11          -4.23228e-11           -0.00232205
          p           1.50726e-09           1.69291e-09                     0

 Vsource: Independent voltage source
     device               v.x1.ve               v.x1.vc               v.x1.vb
         dc                     1                     1                     0
      acmag                     0                     0                     0
      pulse         -         -         -
        sin         -         -         -
        exp         -         -         -
        pwl         -         -         -
       sffm         -         -         -
         am         -         -         -
    trnoise         -         -         -
   trrandom         -         -         -
          i          -1.56554e-05           8.61374e-12             1.476e-05
          p           1.56554e-05          -8.61374e-12                    -0

 Vsource: Independent voltage source
     device                   vin                   vee                   vcc
         dc                     0                    -5                     5
      acmag                     1                     0                     0
      pulse                     0         -         -
                             0.01                    
                             1000                    
        sin                     0         -         -
                             0.01                    
                             1000                    
        exp                     0         -         -
                             0.01                    
                             1000                    
        pwl                     0         -         -
                             0.01                    
                             1000                    
       sffm                     0         -         -
                             0.01                    
                             1000                    
         am                     0         -         -
                             0.01                    
                             1000                    
    trnoise                     0         -         -
                             0.01                    
                             1000                    
   trrandom                     0         -         -
                             0.01                    
                             1000                    
          i                     0           0.000550165           -0.00056544
          p                    -0            0.00275083             0.0028272

 spice2poly: 2G6 compatible polynomial controlled source
     device        a$poly$f.x1.fb      a$poly$e.x1.egnd
      model        a$poly$f.x1.fb      a$poly$e.x1.egnd
    acgains             1.061e+07                   0.5
                           -1e+07                   0.5
                            1e+07          
                            1e+07          
                           -1e+07          


Total analysis time (seconds) = 0.02

Total elapsed time (seconds) = 0.118 

Total DRAM available = 3935.898 MB.
DRAM currently available =  401.973 MB.
Total ngspice program size =   22.945 MB.
Resident set size =   11.242 MB.
Shared ngspice pages =    8.336 MB.
Text (code) pages =    5.070 MB.
Stack = 0 bytes.
Library pages =    3.203 MB.

